test/data/pti/epri.raw
0,    100.00, 33, 0, 0, 60.00       / July 02, 2024 09:43:11; Simulator Version 23; BuildDate 2024_6_10


    1,'1           ',  22.0000,3,   1,   1,   1,1.04999995,  -2.093334, 1.10000, 0.90000, 1.10000, 0.90000
    2,'2           ', 345.0000,1,   1,   1,   1,1.04088414,  -7.796294, 1.10000, 0.90000, 1.10000, 0.90000
    3,'3           ', 345.0000,1,   1,   1,   1,1.01793098, -22.148960, 1.10000, 0.90000, 1.10000, 0.90000
    4,'4           ', 500.0000,1,   1,   1,   1,1.03865266, -22.911960, 1.10000, 0.90000, 1.10000, 0.90000
    5,'5           ', 500.0000,1,   1,   1,   1,1.03768289, -21.899854, 1.10000, 0.90000, 1.10000, 0.90000
    6,'6           ', 500.0000,1,   1,   1,   1,1.05000007, -17.091590, 1.10000, 0.90000, 1.10000, 0.90000
    7,'7           ',  22.0000,2,   1,   1,   1,1.05697250, -11.979854, 1.10000, 0.90000, 1.10000, 0.90000
    8,'8           ',  22.0000,2,   1,   1,   1,1.05697250, -11.979854, 1.10000, 0.90000, 1.10000, 0.90000
   11,'11          ', 500.0000,1,   1,   1,   1,1.05524147, -15.008268, 1.10000, 0.90000, 1.10000, 0.90000
   12,'12          ', 500.0000,1,   1,   1,   1,1.04978323,  -6.541227, 1.10000, 0.90000, 1.10000, 0.90000
   13,'13          ',  22.0000,2,   1,   1,   1,1.04999995,  -2.640397, 1.10000, 0.90000, 1.10000, 0.90000
   14,'14          ',  22.0000,2,   1,   1,   1,1.04999995,  -2.640397, 1.10000, 0.90000, 1.10000, 0.90000
   15,'15          ', 500.0000,1,   1,   1,   1,1.02569091, -22.332714, 1.10000, 0.90000, 1.10000, 0.90000
   16,'16          ', 345.0000,1,   1,   1,   1,1.02261937, -20.704298, 1.10000, 0.90000, 1.10000, 0.90000
   17,'17          ', 345.0000,1,   1,   1,   1,1.04999995,  -6.738127, 1.10000, 0.90000, 1.10000, 0.90000
   18,'18          ',  22.0000,2,   1,   1,   1,1.05440366,  -3.013694, 1.10000, 0.90000, 1.10000, 0.90000
   19,'19          ',  22.0000,2,   1,   1,   1,1.05440366,  -3.013694, 1.10000, 0.90000, 1.10000, 0.90000
   20,'20          ', 345.0000,1,   1,   1,   1,1.03195536, -19.455340, 1.10000, 0.90000, 1.10000, 0.90000
   21,'21          ', 500.0000,1,   1,   1,   1,1.03769720, -21.896852, 1.10000, 0.90000, 1.10000, 0.90000
0 / END OF BUS DATA, BEGIN LOAD DATA
    3,'1 ',1,   1,   1,   600.000,   200.000,     0.000,     0.000,     0.000,     0.000,   1,1, 0
    4,'1 ',1,   1,   1,   900.000,   400.000,     0.000,     0.000,     0.000,     0.000,   1,1, 0
    5,'1 ',1,   1,   1,  1200.000,   350.000,     0.000,     0.000,     0.000,     0.000,   1,1, 0
    6,'1 ',1,   1,   1,   300.000,   150.000,     0.000,     0.000,     0.000,     0.000,   1,1, 0
   15,'1 ',1,   1,   1,  1200.000,   510.000,     0.000,     0.000,     0.000,     0.000,   1,1, 0
   16,'1 ',1,   1,   1,   500.000,   200.000,     0.000,     0.000,     0.000,     0.000,   1,1, 0
0 / END OF LOAD DATA, BEGIN FIXED SHUNT DATA
0 / END OF FIXED SHUNT DATA, BEGIN GENERATOR DATA
    1,'1 ',   776.926,   127.940,   400.000,  -300.000,1.05000,    0,  1000.000,   0.00000,   0.18000,   0.00000,   0.00000,1.00000,1,  100.0,   900.000,     0.000,   1,1.0000,   0,1.0000,   0,1.0000,   0,1.0000,0, 1.0000
    7,'1 ',   900.000,    97.306,   400.000,  -350.000,1.05000,    6,  1100.000,   0.00000,   0.28300,   0.00000,   0.00000,1.00000,1,  100.0,   900.000,     0.000,   1,1.0000,   0,1.0000,   0,1.0000,   0,1.0000,0, 1.0000
    8,'1 ',   900.000,    97.306,   400.000,  -350.000,1.05000,    6,  1100.000,   0.00000,   0.28000,   0.00000,   0.00000,1.00000,1,  100.0,   900.000,     0.000,   1,1.0000,   0,1.0000,   0,1.0000,   0,1.0000,0, 1.0000
   13,'1 ',   500.000,    15.875,   225.000,  -200.000,1.05000,    0,   650.000,   0.00000,   0.18020,   0.00000,   0.00000,1.00000,1,  100.0,   500.000,     0.000,   1,1.0000,   0,1.0000,   0,1.0000,   0,1.0000,0, 1.0000
   14,'1 ',   500.000,    15.875,   225.000,  -200.000,1.05000,    0,   650.000,   0.00000,   0.18020,   0.00000,   0.00000,1.00000,1,  100.0,   500.000,     0.000,   1,1.0000,   0,1.0000,   0,1.0000,   0,1.0000,0, 1.0000
   18,'1 ',   600.000,    57.280,   400.000,  -300.000,1.05000,   17,   900.000,   0.00000,   0.22800,   0.00000,   0.00000,1.00000,1,  100.0,   800.000,     0.000,   1,1.0000,   0,1.0000,   0,1.0000,   0,1.0000,0, 1.0000
   19,'1 ',   600.000,    57.280,   400.000,  -300.000,1.05000,   17,   900.000,   0.00000,   0.22800,   0.00000,   0.00000,1.00000,1,  100.0,   800.000,     0.000,   1,1.0000,   0,1.0000,   0,1.0000,   0,1.0000,0, 1.0000
0 / END OF GENERATOR DATA, BEGIN BRANCH DATA
     2,     3,'1 ',2.95000E-3,3.15000E-2,5.39000E-1,2120.00,   0.00,   0.00,  0.00000,  0.00000,  0.00000,  0.00000, 1,1,   0.00,   1,1.0000,   0,1.0000,   0,1.0000,   0,1.0000
    17,     2,'1 ',2.96000E-3,3.10000E-2,5.40000E-1,2120.00,   0.00,   0.00,  0.00000,  0.00000,  0.00000,  0.00000, 1,1,   0.00,   1,1.0000,   0,1.0000,   0,1.0000,   0,1.0000
     4,     5,'1 ',9.38000E-4,1.54500E-2,1.65000E0,2000.00,   0.00,   0.00,  0.00000,  0.00000,  0.00000,  0.00000, 1,1,   0.00,   1,1.0000,   0,1.0000,   0,1.0000,   0,1.0000
     4,     5,'2 ',9.38000E-4,1.54500E-2,0.00000E-1,2000.00,   0.00,   0.00,  0.00000,  0.00000,  0.00000,  0.00000, 1,1,   0.00,   1,1.0000,   0,1.0000,   0,1.0000,   0,1.0000
     4,     6,'1 ',1.86600E-3,3.07500E-2,3.28000E0,2000.00,   0.00,   0.00,  0.00000,  0.00000,  0.00000,  0.00000, 1,1,   0.00,   1,1.0000,   0,1.0000,   0,1.0000,   0,1.0000
    15,     4,'1 ',7.94000E-4,1.38000E-2,1.40000E0,2000.00,   0.00,   0.00,  0.00000,  0.00000,  0.00000,  0.00000, 1,1,   0.00,   1,1.0000,   0,1.0000,   0,1.0000,   0,1.0000
     5,     6,'1 ',1.19000E-3,1.78000E-2,2.46400E0,   0.00,   0.00,   0.00,  0.00000,  0.00000,  0.00000,  0.00000, 1,1,   0.00,   1,1.0000,   0,1.0000,   0,1.0000,   0,1.0000
     5,    21,'1 ',0.00000E-1,1.00000E-5,0.00000E-1,2000.00,   0.00,   0.00,  0.00000,  0.00000,  0.00000,  0.00000, 1,1,   0.00,   1,1.0000,   0,1.0000,   0,1.0000,   0,1.0000
     6,    11,'1 ',5.78000E-4,9.61000E-3,1.01700E0,2000.00,   0.00,   0.00,  0.00000,  0.00000,  0.00000,  0.00000, 1,1,   0.00,   1,1.0000,   0,1.0000,   0,1.0000,   0,1.0000
    15,     6,'1 ',1.17000E-3,1.92000E-2,2.05000E0,2000.00,   0.00,   0.00,  0.00000,  0.00000,  0.00000,  0.00000, 1,1,   0.00,   1,1.0000,   0,1.0000,   0,1.0000,   0,1.0000
    15,     6,'2 ',1.17000E-3,1.92000E-2,2.05000E0,2000.00,   0.00,   0.00,  0.00000,  0.00000,  0.00000,  0.00000, 1,1,   0.00,   1,1.0000,   0,1.0000,   0,1.0000,   0,1.0000
    11,    12,'1 ',9.30000E-4,1.63000E-2,1.63000E0,1200.00,   0.00,   0.00,  0.00000,  0.00000,  0.00000,  0.00000, 1,1,   0.00,   1,1.0000,   0,1.0000,   0,1.0000,   0,1.0000
    21,    11,'1 ',1.40400E-3,2.32500E-2,2.47200E0,2000.00,   0.00,   0.00,  0.00000,  0.00000,  0.00000,  0.00000, 1,1,   0.00,   1,1.0000,   0,1.0000,   0,1.0000,   0,1.0000
    16,    17,'1 ',3.92000E-3,3.82000E-2,7.14000E-1,2120.00,   0.00,   0.00,  0.00000,  0.00000,  0.00000,  0.00000, 1,1,   0.00,   1,1.0000,   0,1.0000,   0,1.0000,   0,1.0000
    16,    20,'1 ',3.40200E-3,3.48000E-2,6.23000E-1,2120.00,   0.00,   0.00,  0.00000,  0.00000,  0.00000,  0.00000, 1,1,   0.00,   1,1.0000,   0,1.0000,   0,1.0000,   0,1.0000
    17,    20,'1 ',5.83000E-3,5.42000E-2,1.06400E0,2120.00,   0.00,   0.00,  0.00000,  0.00000,  0.00000,  0.00000, 1,1,   0.00,   1,1.0000,   0,1.0000,   0,1.0000,   0,1.0000
0 / END OF BRANCH DATA, BEGIN TRANSFORMER DATA
     1,     2,    0,'1 ',1,1,1,0.00000E-1,0.00000E-1,2,'            ', 1,   1,1.0000,   0,1.0000,   0,1.0000,   0,1.0000,'            '
1.68000E-4,1.40000E-2, 100.00
1.000000, 22.000,   0.000,1644.50,   0.00,   0.00, 0,     0,1.500000,0.510000,1.500000,0.510000,159, 0, 0.00000, 0.00000,  0.000
1.000000,345.000
     3,     4,    0,'1 ',1,1,1,0.00000E-1,0.00000E-1,2,'            ', 1,   1,1.0000,   0,1.0000,   0,1.0000,   0,1.0000,'            '
1.64000E-4,2.50000E-2, 100.00
1.000000,345.000,   0.000,2000.00,   0.00,   0.00, 0,     0,1.500000,0.510000,1.500000,0.510000,159, 0, 0.00000, 0.00000,  0.000
1.000000,500.000
     3,     4,    0,'2 ',1,1,1,0.00000E-1,0.00000E-1,2,'            ', 1,   1,1.0000,   0,1.0000,   0,1.0000,   0,1.0000,'            '
1.60000E-4,2.50000E-2, 100.00
1.000000,345.000,   0.000,2000.00,   0.00,   0.00, 0,     0,1.500000,0.510000,1.500000,0.510000,159, 0, 0.00000, 0.00000,  0.000
1.000000,500.000
     3,     4,    0,'3 ',1,1,1,0.00000E-1,0.00000E-1,2,'            ', 1,   1,1.0000,   0,1.0000,   0,1.0000,   0,1.0000,'            '
7.00000E-5,2.50000E-2, 100.00
1.000000,345.000,   0.000,2000.00,   0.00,   0.00, 0,     0,1.500000,0.510000,1.500000,0.510000,159, 0, 0.00000, 0.00000,  0.000
1.000000,500.000
     3,     4,    0,'4 ',1,1,1,0.00000E-1,0.00000E-1,2,'            ', 1,   1,1.0000,   0,1.0000,   0,1.0000,   0,1.0000,'            '
7.00000E-5,2.50000E-2, 100.00
1.000000,345.000,   0.000,2000.00,   0.00,   0.00, 0,     0,1.500000,0.510000,1.500000,0.510000,159, 0, 0.00000, 0.00000,  0.000
1.000000,500.000
    20,     5,    0,'1 ',1,1,1,0.00000E-1,0.00000E-1,2,'            ', 1,   1,1.0000,   0,1.0000,   0,1.0000,   0,1.0000,'            '
6.70000E-5,2.50000E-2, 100.00
1.000000,345.000,   0.000,2000.00,   0.00,   0.00, 0,     0,1.500000,0.510000,1.500000,0.510000,159, 0, 0.00000, 0.00000,  0.000
1.000000,500.000
    20,     5,    0,'2 ',1,1,1,0.00000E-1,0.00000E-1,2,'            ', 1,   1,1.0000,   0,1.0000,   0,1.0000,   0,1.0000,'            '
6.70000E-5,2.50000E-2, 100.00
1.000000,345.000,   0.000,2000.00,   0.00,   0.00, 0,     0,1.500000,0.510000,1.500000,0.510000,159, 0, 0.00000, 0.00000,  0.000
1.000000,500.000
     6,     7,    0,'1 ',1,1,1,0.00000E-1,0.00000E-1,2,'            ', 1,   1,1.0000,   0,1.0000,   0,1.0000,   0,1.0000,'            '
1.79259E-4,1.64321E-2, 100.00
0.818182,500.000,   0.000,1200.00,   0.00,   0.00, 0,     0,1.227273,0.417273,1.500000,0.510000,159, 0, 0.00000, 0.00000,  0.000
0.818182, 18.000
     6,     8,    0,'1 ',1,1,1,0.00000E-1,0.00000E-1,2,'            ', 1,   1,1.0000,   0,1.0000,   0,1.0000,   0,1.0000,'            '
1.20000E-4,1.10000E-2, 100.00
1.000000,500.000,   0.000,1200.00,   0.00,   0.00, 0,     0,1.500000,0.510000,1.500000,0.510000,159, 0, 0.00000, 0.00000,  0.000
1.000000, 22.000
    12,    13,    0,'1 ',1,1,1,0.00000E-1,0.00000E-1,2,'            ', 1,   1,1.0000,   0,1.0000,   0,1.0000,   0,1.0000,'            '
8.00000E-5,1.50000E-2, 100.00
1.000000,500.000,   0.000, 750.00,   0.00,   0.00, 0,     0,1.500000,0.510000,1.500000,0.510000,159, 0, 0.00000, 0.00000,  0.000
1.000000, 22.000
    12,    14,    0,'1 ',1,1,1,0.00000E-1,0.00000E-1,2,'            ', 1,   1,1.0000,   0,1.0000,   0,1.0000,   0,1.0000,'            '
8.00000E-5,1.50000E-2, 100.00
1.000000,500.000,   0.000, 750.00,   0.00,   0.00, 0,     0,1.500000,0.510000,1.500000,0.510000,159, 0, 0.00000, 0.00000,  0.000
1.000000, 22.000
    16,    15,    0,'1 ',1,1,1,0.00000E-1,0.00000E-1,2,'            ', 1,   1,1.0000,   0,1.0000,   0,1.0000,   0,1.0000,'            '
6.70000E-5,2.50000E-2, 100.00
1.000000,345.000,   0.000,2000.00,   0.00,   0.00, 0,     0,1.500000,0.510000,1.500000,0.510000,159, 0, 0.00000, 0.00000,  0.000
1.000000,500.000
    16,    15,    0,'2 ',1,1,1,0.00000E-1,0.00000E-1,2,'            ', 1,   1,1.0000,   0,1.0000,   0,1.0000,   0,1.0000,'            '
6.70000E-5,2.50000E-2, 100.00
1.000000,345.000,   0.000,2000.00,   0.00,   0.00, 0,     0,1.500000,0.510000,1.500000,0.510000,159, 0, 0.00000, 0.00000,  0.000
1.000000,500.000
    18,    17,    0,'1 ',1,1,1,0.00000E-1,0.00000E-1,2,'            ', 1,   1,1.0000,   0,1.0000,   0,1.0000,   0,1.0000,'            '
1.68000E-4,1.20000E-2, 100.00
1.000000, 22.000,   0.000,1644.50,   0.00,   0.00, 0,     0,1.500000,0.510000,1.500000,0.510000,159, 0, 0.00000, 0.00000,  0.000
1.000000,345.000
    19,    17,    0,'1 ',1,1,1,0.00000E-1,0.00000E-1,2,'            ', 1,   1,1.0000,   0,1.0000,   0,1.0000,   0,1.0000,'            '
1.68000E-4,1.20000E-2, 100.00
1.000000, 22.000,   0.000,1644.50,   0.00,   0.00, 0,     0,1.500000,0.510000,1.500000,0.510000,159, 0, 0.00000, 0.00000,  0.000
1.000000,345.000
0 / END OF TRANSFORMER DATA, BEGIN AREA DATA
   1,    0,     0.000,     1.000,'1           '
0 / END OF AREA DATA, BEGIN TWO-TERMINAL DC DATA
0 / END OF TWO-TERMINAL DC DATA, BEGIN VOLTAGE SOURCE CONVERTER DATA
0 / END OF VOLTAGE SOURCE CONVERTER DATA, BEGIN IMPEDANCE CORRECTION DATA
0 / END OF IMPEDANCE CORRECTION DATA, BEGIN MULTI-TERMINAL DC DATA
0 / END OF MULTI-TERMINAL DC DATA, BEGIN MULTI-SECTION LINE DATA
0 / END OF MULTI-SECTION LINE DATA, BEGIN ZONE DATA
   1,'1           '
0 / END OF ZONE DATA, BEGIN INTER-AREA TRANSFER DATA
0 / END OF INTER-AREA TRANSFER DATA, BEGIN OWNER DATA
    1,'1'
0 / END OF OWNER DATA, BEGIN FACTS CONTROL DEVICE DATA
0 / END OF FACTS CONTROL DEVICE DATA, BEGIN SWITCHED SHUNT DATA
    4,0,0,1,1.00000,0.99000,    0,100.0,'        ',  500.00, 1, 500.00
   16,0,0,1,1.00000,0.99000,    0,100.0,'        ',  200.00, 1, 200.00
0 /END OF SWITCHED SHUNT DATA, BEGIN GNE DEVICE DATA
0 /END OF GNE DEVICE DATA
0 / END OF INDUCTION MACHINE DATA
Q
